---SUMMARY---
Test fixture for the GENERATE:INTERFACE generator.
---COMMAND---
generate:interface --name=Fooable --module=generator
---EXPECTED---
[ File 1 ] MODPATH/generator/Fooable.php

<?php defined('SYSPATH') OR die('No direct script access.');
/**
 * Fooable interface.
 *
 * @package    Generator
 * @category   Interfaces
 * @author     Test Author
 * @copyright  (c) 2012 Test Author
 * @license    Test license
 */
interface Fooable
{

} // End Fooable
---END---
