---SUMMARY---
Test fixture for the GENERATE:TASK:GENERATOR generator.
---COMMAND---
generate:task:generator --name=Foo --module=bar
---EXPECTED---
[ File 1 ] MODPATH/bar/classes/Bar/Task/Generate/Foo.php

<?php defined('SYSPATH') OR die('No direct script access.');
/**
 * Description of Bar_Task_Generate_Foo.
 *
 * @package    Bar
 * @category   Generator/Tasks
 * @author     Test Author
 * @copyright  (c) 2012 Test Author
 * @license    Test license
 */
class Bar_Task_Generate_Foo extends Task_Generate
{
	/**
	 * @var  array  The task options
	 */
	protected $_options = array(
		'name' => '',
	);

	/**
	 * Validates the task options.
	 *
	 * @param   Validation  $validation  The validation object to add rules to
	 * @return  Validation
	 */
	public function build_validation(Validation $validation)
	{
		return parent::build_validation($validation)
			->rule('name', 'not_empty');
	}

	/**
	 * Creates a generator builder with the given configuration options.
	 *
	 * @param   array  $options  The selected task options
	 * @return  Generator_Builder
	 */
	public function get_builder(array $options)
	{
		$builder = Generator::build();

		return $builder;
	}

} // End Bar_Task_Generate_Foo

[ File 2 ] MODPATH/bar/classes/Task/Generate/Foo.php

<?php defined('SYSPATH') OR die('No direct script access.');
/**
 * Description of Task_Generate_Foo.
 *
 * Additional options:
 *
 *   --option1=VALUE1
 *
 *     Description of this option.
 *
 *   --option2=VALUE2
 *
 *     Description of this option.
 *
 * Examples
 * ========
 * minion task --option1=value1
 *
 *     Description of this example.
 *
 * minion task --option1=value1 --option2=value2
 *
 *     Description of this example.
 *
 * @package    Bar
 * @category   Tasks
 * @author     Test Author
 * @copyright  (c) 2012 Test Author
 * @license    Test license
 */
class Task_Generate_Foo extends Bar_Task_Generate_Foo {}
---END---
